


 59 61  0  0  0  0  0  0  0  0999 V2000
   -6.0343  -17.2679  -15.5430 P   0  0  0  0  0  0  0  0  0  0  0  0
   -5.7131  -16.9389  -14.1006 O   0  0  0  0  0  0  0  0  0  0  0  0
   -5.4277  -18.8037  -15.9130 O   0  0  0  0  0  0  0  0  0  0  0  0
   -4.4468  -18.6824  -15.9605 H   0  0  0  0  0  0  0  0  0  0  0  0
   -7.7195  -17.2536  -15.8205 O   0  0  0  0  0  0  0  0  0  0  0  0
   -8.0314  -17.9382  -17.0150 C   0  0  0  0  0  0  0  0  0  0  0  0
   -8.6463  -19.3299  -16.7307 C   0  0  0  0  0  0  0  0  0  0  0  0
   -9.1578  -19.3777  -15.4129 O   0  0  0  0  0  0  0  0  0  0  0  0
  -10.5593  -19.5046  -15.4884 C   0  0  0  0  0  0  0  0  0  0  0  0
  -10.9968  -19.2411  -16.9224 C   0  0  0  0  0  0  0  0  0  0  0  0
  -12.1351  -19.9938  -17.2525 O   0  0  0  0  0  0  0  0  0  0  0  0
   -9.7782  -19.6667  -17.7108 C   0  0  0  0  0  0  0  0  0  0  0  0
  -12.4470  -19.6539  -18.1326 H   0  0  0  0  0  0  0  0  0  0  0  0
  -11.1844  -18.5679  -14.5496 N   0  0  0  0  0  0  0  0  0  0  0  0
  -10.8776  -17.2621  -14.3457 C   0  0  0  0  0  0  0  0  0  0  0  0
  -11.5879  -16.6908  -13.3332 N   0  0  0  0  0  0  0  0  0  0  0  0
  -12.3610  -17.7019  -12.9035 C   0  0  0  0  0  0  0  0  0  0  0  0
  -13.3028  -17.7244  -11.8806 C   0  0  0  0  0  0  0  0  0  0  0  0
  -13.5645  -16.5763  -11.0747 N   0  0  0  0  0  0  0  0  0  0  0  0
  -13.9657  -18.8985  -11.6552 N   0  0  0  0  0  0  0  0  0  0  0  0
  -13.7057  -20.0198  -12.4026 C   0  0  0  0  0  0  0  0  0  0  0  0
  -12.7706  -19.9905  -13.4008 N   0  0  0  0  0  0  0  0  0  0  0  0
  -12.1243  -18.8201  -13.6293 C   0  0  0  0  0  0  0  0  0  0  0  0
  -12.9463  -15.7382  -11.1275 H   0  0  0  0  0  0  0  0  0  0  0  0
  -14.3282  -16.5939  -10.3662 H   0  0  0  0  0  0  0  0  0  0  0  0
   -9.8224  -21.0674  -17.9300 O   0  0  0  0  0  0  0  0  0  0  0  0
  -10.1609  -21.3845  -19.5747 P   0  0  0  0  0  0  0  0  0  0  0  0
   -9.7095  -22.7809  -19.9448 O   0  0  0  0  0  0  0  0  0  0  0  0
  -11.8280  -21.2650  -19.8288 O   0  0  0  0  0  0  0  0  0  0  0  0
   -9.3688  -20.2531  -20.5523 O   0  0  0  0  0  0  0  0  0  0  0  0
  -12.1180  -20.5078  -19.2638 H   0  0  0  0  0  0  0  0  0  0  0  0
   -9.6684  -19.3728  -20.2148 H   0  0  0  0  0  0  0  0  0  0  0  0
   -5.2954  -16.1331  -16.5769 O   0  0  0  0  0  0  0  0  0  0  0  0
   -5.8085  -14.5744  -16.1088 P   0  0  0  0  0  0  0  0  0  0  0  0
   -5.3425  -13.5303  -17.1056 O   0  0  0  0  0  0  0  0  0  0  0  0
   -7.4994  -14.5350  -16.0223 O   0  0  0  0  0  0  0  0  0  0  0  0
   -7.7333  -15.2587  -15.3870 H   0  0  0  0  0  0  0  0  0  0  0  0
   -5.1644  -14.2590  -14.5515 O   0  0  0  0  0  0  0  0  0  0  0  0
   -3.8046  -13.8650  -14.6332 C   0  0  0  0  0  0  0  0  0  0  0  0
   -4.0440  -12.9476  -12.2781 C   0  0  0  0  0  0  0  0  0  0  0  0
   -3.5028  -12.6519  -13.7001 C   0  0  0  0  0  0  0  0  0  0  0  0
   -4.2235  -11.4019  -14.2561 C   0  0  0  0  0  0  0  0  0  0  0  0
   -1.9489  -12.4254  -13.6584 C   0  0  0  0  0  0  0  0  0  0  0  0
   -1.3020  -13.6343  -13.3392 O   0  0  0  0  0  0  0  0  0  0  0  0
   -0.4090  -13.4017  -12.9746 H   0  0  0  0  0  0  0  0  0  0  0  0
   -1.3693  -11.8826  -14.9473 C   0  0  0  0  0  0  0  0  0  0  0  0
   -0.9324  -12.7837  -15.9235 O   0  0  0  0  0  0  0  0  0  0  0  0
   -1.2642  -10.5974  -15.1131 N   0  0  0  0  0  0  0  0  0  0  0  0
   -0.4960  -12.4914  -16.7885 H   0  0  0  0  0  0  0  0  0  0  0  0
   -0.7219   -9.9337  -16.2941 C   0  0  0  0  0  0  0  0  0  0  0  0
   -0.9531   -8.4250  -16.1973 C   0  0  0  0  0  0  0  0  0  0  0  0
   -0.8527   -7.9301  -14.7835 C   0  0  0  0  0  0  0  0  0  0  0  0
    0.3437   -8.0709  -14.0763 O   0  0  0  0  0  0  0  0  0  0  0  0
   -1.8857   -7.3765  -14.2260 N   0  0  0  0  0  0  0  0  0  0  0  0
    1.1644   -8.4813  -14.5030 H   0  0  0  0  0  0  0  0  0  0  0  0
   -1.9033   -6.8748  -12.8533 C   0  0  0  0  0  0  0  0  0  0  0  0
   -1.5422   -5.3909  -12.8198 C   0  0  0  0  0  0  0  0  0  0  0  0
   -0.1721   -5.1011  -11.6548 S   0  0  0  0  0  0  0  0  0  0  0  0
   -0.9476   -5.4592  -10.5333 H   0  0  0  0  0  0  0  0  0  0  0  0
 40 41  1  0  0  0
 41 42  1  0  0  0
 41 39  1  0  0  0
 41 43  1  0  0  0
 39 38  1  0  0  0
 38 34  1  0  0  0
 34 35  2  0  0  0
 34 36  1  0  0  0
 34 33  1  0  0  0
 36 37  1  0  0  0
 33  1  1  0  0  0
  1  2  2  0  0  0
  1  3  1  0  0  0
  1  5  1  0  0  0
  3  4  1  0  0  0
  5  6  1  0  0  0
  6  7  1  0  0  0
  7  8  1  0  0  0
  7 12  1  0  0  0
  8  9  1  0  0  0
  9 14  1  0  0  0
  9 10  1  0  0  0
 14 15  1  0  0  0
 14 23  1  0  0  0
 15 16  2  0  0  0
 16 17  1  0  0  0
 17 18  2  0  0  0
 17 23  1  0  0  0
 18 19  1  0  0  0
 18 20  1  0  0  0
 19 24  1  0  0  0
 19 25  1  0  0  0
 20 21  2  0  0  0
 21 22  1  0  0  0
 22 23  2  0  0  0
 10 11  1  0  0  0
 10 12  1  0  0  0
 11 13  1  0  0  0
 12 26  1  0  0  0
 26 27  1  0  0  0
 27 28  2  0  0  0
 27 29  1  0  0  0
 27 30  1  0  0  0
 29 31  1  0  0  0
 30 32  1  0  0  0
 43 44  1  0  0  0
 43 46  1  0  0  0
 44 45  1  0  0  0
 46 47  1  0  0  0
 46 48  2  0  0  0
 47 49  1  0  0  0
 48 50  1  0  0  0
 50 51  1  0  0  0
 51 52  1  0  0  0
 52 53  1  0  0  0
 52 54  2  0  0  0
 53 55  1  0  0  0
 54 56  1  0  0  0
 56 57  1  0  0  0
 57 58  1  0  0  0
 58 59  1  0  0  0
M  END
> <minimizedAffinity>
-7.55578

> <CNNscore>
0.7667647600

> <CNNaffinity>
6.1983227730

> <CNN_VS>
4.7526555061

> <CNNaffinity_variance>
0.3682059348

$$$$



 59 61  0  0  0  0  0  0  0  0999 V2000
   -6.7111  -17.1944  -15.5269 P   0  0  0  0  0  0  0  0  0  0  0  0
   -7.3189  -16.1327  -16.4185 O   0  0  0  0  0  0  0  0  0  0  0  0
   -6.7998  -16.6867  -13.9151 O   0  0  0  0  0  0  0  0  0  0  0  0
   -6.1244  -15.9674  -13.8401 H   0  0  0  0  0  0  0  0  0  0  0  0
   -7.5338  -18.6826  -15.6875 O   0  0  0  0  0  0  0  0  0  0  0  0
   -8.6377  -18.7364  -14.8095 C   0  0  0  0  0  0  0  0  0  0  0  0
   -9.8921  -19.3177  -15.5055 C   0  0  0  0  0  0  0  0  0  0  0  0
  -10.9243  -19.5220  -14.5603 O   0  0  0  0  0  0  0  0  0  0  0  0
  -11.9787  -18.6365  -14.8605 C   0  0  0  0  0  0  0  0  0  0  0  0
  -11.4850  -17.6162  -15.8766 C   0  0  0  0  0  0  0  0  0  0  0  0
  -12.5230  -17.2029  -16.7268 O   0  0  0  0  0  0  0  0  0  0  0  0
  -10.4141  -18.3910  -16.6118 C   0  0  0  0  0  0  0  0  0  0  0  0
  -12.1666  -16.4349  -17.2469 H   0  0  0  0  0  0  0  0  0  0  0  0
  -12.4411  -17.9937  -13.6266 N   0  0  0  0  0  0  0  0  0  0  0  0
  -11.9804  -16.8511  -13.0583 C   0  0  0  0  0  0  0  0  0  0  0  0
  -12.5636  -16.5693  -11.8597 N   0  0  0  0  0  0  0  0  0  0  0  0
  -13.4178  -17.5930  -11.6955 C   0  0  0  0  0  0  0  0  0  0  0  0
  -14.2958  -17.8555  -10.6495 C   0  0  0  0  0  0  0  0  0  0  0  0
  -14.3819  -17.0026   -9.5088 N   0  0  0  0  0  0  0  0  0  0  0  0
  -15.0705  -18.9782  -10.7388 N   0  0  0  0  0  0  0  0  0  0  0  0
  -14.9796  -19.8242  -11.8157 C   0  0  0  0  0  0  0  0  0  0  0  0
  -14.1061  -19.5625  -12.8356 N   0  0  0  0  0  0  0  0  0  0  0  0
  -13.3485  -18.4408  -12.7489 C   0  0  0  0  0  0  0  0  0  0  0  0
  -13.6788  -16.2478   -9.3556 H   0  0  0  0  0  0  0  0  0  0  0  0
  -15.1008  -17.1764   -8.7749 H   0  0  0  0  0  0  0  0  0  0  0  0
  -11.0114  -19.1620  -17.6417 O   0  0  0  0  0  0  0  0  0  0  0  0
  -10.5351  -18.5567  -19.1672 P   0  0  0  0  0  0  0  0  0  0  0  0
   -9.1671  -17.9159  -19.0748 O   0  0  0  0  0  0  0  0  0  0  0  0
  -10.4654  -19.8348  -20.2715 O   0  0  0  0  0  0  0  0  0  0  0  0
  -11.6616  -17.4165  -19.7095 O   0  0  0  0  0  0  0  0  0  0  0  0
  -11.2309  -20.4148  -20.0385 H   0  0  0  0  0  0  0  0  0  0  0  0
  -12.5307  -17.8887  -19.6877 H   0  0  0  0  0  0  0  0  0  0  0  0
   -5.0718  -17.4240  -15.9303 O   0  0  0  0  0  0  0  0  0  0  0  0
   -4.4123  -15.9093  -16.3576 P   0  0  0  0  0  0  0  0  0  0  0  0
   -2.9013  -15.9213  -16.2250 O   0  0  0  0  0  0  0  0  0  0  0  0
   -4.8201  -15.5437  -17.9602 O   0  0  0  0  0  0  0  0  0  0  0  0
   -5.8098  -15.5880  -17.9816 H   0  0  0  0  0  0  0  0  0  0  0  0
   -5.1043  -14.7290  -15.3244 O   0  0  0  0  0  0  0  0  0  0  0  0
   -4.1074  -13.8760  -14.7863 C   0  0  0  0  0  0  0  0  0  0  0  0
   -3.7618  -11.4190  -14.2485 C   0  0  0  0  0  0  0  0  0  0  0  0
   -4.2463  -12.4198  -15.3283 C   0  0  0  0  0  0  0  0  0  0  0  0
   -5.7361  -12.1396  -15.6330 C   0  0  0  0  0  0  0  0  0  0  0  0
   -3.3773  -12.2840  -16.6300 C   0  0  0  0  0  0  0  0  0  0  0  0
   -4.1491  -12.6348  -17.7539 O   0  0  0  0  0  0  0  0  0  0  0  0
   -3.5173  -12.8859  -18.4766 H   0  0  0  0  0  0  0  0  0  0  0  0
   -2.7971  -10.9021  -16.8434 C   0  0  0  0  0  0  0  0  0  0  0  0
   -3.6189   -9.8977  -17.3644 O   0  0  0  0  0  0  0  0  0  0  0  0
   -1.5465  -10.6807  -16.5652 N   0  0  0  0  0  0  0  0  0  0  0  0
   -3.2859   -8.9649  -17.5726 H   0  0  0  0  0  0  0  0  0  0  0  0
   -0.8519   -9.4075  -16.7257 C   0  0  0  0  0  0  0  0  0  0  0  0
   -0.3312   -8.9227  -15.3719 C   0  0  0  0  0  0  0  0  0  0  0  0
   -1.2903   -7.9796  -14.7052 C   0  0  0  0  0  0  0  0  0  0  0  0
   -2.6593   -8.0726  -14.9677 O   0  0  0  0  0  0  0  0  0  0  0  0
   -0.8362   -7.0781  -13.8896 N   0  0  0  0  0  0  0  0  0  0  0  0
   -3.0318   -8.7829  -15.5848 H   0  0  0  0  0  0  0  0  0  0  0  0
   -1.6769   -6.1016  -13.1997 C   0  0  0  0  0  0  0  0  0  0  0  0
   -0.8513   -5.2939  -12.2000 C   0  0  0  0  0  0  0  0  0  0  0  0
   -0.9945   -6.0164  -10.5340 S   0  0  0  0  0  0  0  0  0  0  0  0
   -2.3646   -5.7013  -10.4309 H   0  0  0  0  0  0  0  0  0  0  0  0
 40 41  1  0  0  0
 41 42  1  0  0  0
 41 39  1  0  0  0
 41 43  1  0  0  0
 39 38  1  0  0  0
 38 34  1  0  0  0
 34 35  2  0  0  0
 34 36  1  0  0  0
 34 33  1  0  0  0
 36 37  1  0  0  0
 33  1  1  0  0  0
  1  2  2  0  0  0
  1  3  1  0  0  0
  1  5  1  0  0  0
  3  4  1  0  0  0
  5  6  1  0  0  0
  6  7  1  0  0  0
  7  8  1  0  0  0
  7 12  1  0  0  0
  8  9  1  0  0  0
  9 14  1  0  0  0
  9 10  1  0  0  0
 14 15  1  0  0  0
 14 23  1  0  0  0
 15 16  2  0  0  0
 16 17  1  0  0  0
 17 18  2  0  0  0
 17 23  1  0  0  0
 18 19  1  0  0  0
 18 20  1  0  0  0
 19 24  1  0  0  0
 19 25  1  0  0  0
 20 21  2  0  0  0
 21 22  1  0  0  0
 22 23  2  0  0  0
 10 11  1  0  0  0
 10 12  1  0  0  0
 11 13  1  0  0  0
 12 26  1  0  0  0
 26 27  1  0  0  0
 27 28  2  0  0  0
 27 29  1  0  0  0
 27 30  1  0  0  0
 29 31  1  0  0  0
 30 32  1  0  0  0
 43 44  1  0  0  0
 43 46  1  0  0  0
 44 45  1  0  0  0
 46 47  1  0  0  0
 46 48  2  0  0  0
 47 49  1  0  0  0
 48 50  1  0  0  0
 50 51  1  0  0  0
 51 52  1  0  0  0
 52 53  1  0  0  0
 52 54  2  0  0  0
 53 55  1  0  0  0
 54 56  1  0  0  0
 56 57  1  0  0  0
 57 58  1  0  0  0
 58 59  1  0  0  0
M  END
> <minimizedAffinity>
-7.89965

> <CNNscore>
0.7007533312

> <CNNaffinity>
6.2838759422

> <CNN_VS>
4.4034471512

> <CNNaffinity_variance>
0.5485903621

$$$$



 59 61  0  0  0  0  0  0  0  0999 V2000
   -6.6370  -16.6179  -15.4093 P   0  0  0  0  0  0  0  0  0  0  0  0
   -7.1342  -15.4496  -16.2336 O   0  0  0  0  0  0  0  0  0  0  0  0
   -6.4149  -16.1164  -13.8084 O   0  0  0  0  0  0  0  0  0  0  0  0
   -5.6074  -15.5450  -13.8332 H   0  0  0  0  0  0  0  0  0  0  0  0
   -7.7499  -17.9132  -15.4372 O   0  0  0  0  0  0  0  0  0  0  0  0
   -8.3136  -18.1104  -14.1581 C   0  0  0  0  0  0  0  0  0  0  0  0
   -9.8449  -17.8846  -14.1688 C   0  0  0  0  0  0  0  0  0  0  0  0
  -10.1701  -16.7821  -14.9930 O   0  0  0  0  0  0  0  0  0  0  0  0
  -10.8968  -17.2598  -16.1019 C   0  0  0  0  0  0  0  0  0  0  0  0
  -10.7905  -18.7779  -16.1381 C   0  0  0  0  0  0  0  0  0  0  0  0
  -11.9518  -19.3556  -16.6753 O   0  0  0  0  0  0  0  0  0  0  0  0
  -10.6021  -19.1191  -14.6767 C   0  0  0  0  0  0  0  0  0  0  0  0
  -11.7457  -20.3182  -16.8110 H   0  0  0  0  0  0  0  0  0  0  0  0
  -10.3722  -16.6497  -17.3275 N   0  0  0  0  0  0  0  0  0  0  0  0
   -9.5055  -17.1876  -18.2219 C   0  0  0  0  0  0  0  0  0  0  0  0
   -9.1438  -16.3243  -19.2119 N   0  0  0  0  0  0  0  0  0  0  0  0
   -9.8248  -15.2094  -18.8990 C   0  0  0  0  0  0  0  0  0  0  0  0
   -9.8577  -13.9797  -19.5477 C   0  0  0  0  0  0  0  0  0  0  0  0
   -9.0791  -13.7254  -20.7160 N   0  0  0  0  0  0  0  0  0  0  0  0
  -10.6538  -13.0039  -19.0161 N   0  0  0  0  0  0  0  0  0  0  0  0
  -11.3872  -13.2229  -17.8769 C   0  0  0  0  0  0  0  0  0  0  0  0
  -11.3412  -14.4331  -17.2405 N   0  0  0  0  0  0  0  0  0  0  0  0
  -10.5598  -15.4026  -17.7785 C   0  0  0  0  0  0  0  0  0  0  0  0
   -8.3463  -14.4007  -21.0234 H   0  0  0  0  0  0  0  0  0  0  0  0
   -9.1787  -12.8239  -21.2287 H   0  0  0  0  0  0  0  0  0  0  0  0
  -11.8686  -19.1997  -14.0430 O   0  0  0  0  0  0  0  0  0  0  0  0
  -12.1173  -20.7822  -13.4477 P   0  0  0  0  0  0  0  0  0  0  0  0
  -10.8141  -21.3664  -12.9465 O   0  0  0  0  0  0  0  0  0  0  0  0
  -13.2175  -20.7236  -12.1655 O   0  0  0  0  0  0  0  0  0  0  0  0
  -12.7466  -21.7643  -14.6735 O   0  0  0  0  0  0  0  0  0  0  0  0
  -13.8822  -20.0421  -12.4312 H   0  0  0  0  0  0  0  0  0  0  0  0
  -13.5572  -21.2913  -14.9861 H   0  0  0  0  0  0  0  0  0  0  0  0
   -5.1411  -17.1629  -16.0158 O   0  0  0  0  0  0  0  0  0  0  0  0
   -4.1457  -15.8018  -16.2773 P   0  0  0  0  0  0  0  0  0  0  0  0
   -2.6815  -16.1976  -16.2897 O   0  0  0  0  0  0  0  0  0  0  0  0
   -4.5348  -15.0906  -17.7642 O   0  0  0  0  0  0  0  0  0  0  0  0
   -5.5035  -14.8918  -17.6993 H   0  0  0  0  0  0  0  0  0  0  0  0
   -4.4610  -14.6763  -15.0229 O   0  0  0  0  0  0  0  0  0  0  0  0
   -3.2922  -13.9468  -14.6877 C   0  0  0  0  0  0  0  0  0  0  0  0
   -2.9960  -11.5742  -13.8342 C   0  0  0  0  0  0  0  0  0  0  0  0
   -3.4385  -12.4353  -15.0446 C   0  0  0  0  0  0  0  0  0  0  0  0
   -4.9241  -12.1354  -15.3512 C   0  0  0  0  0  0  0  0  0  0  0  0
   -2.5391  -12.1257  -16.2948 C   0  0  0  0  0  0  0  0  0  0  0  0
   -3.2086  -12.5183  -17.4693 O   0  0  0  0  0  0  0  0  0  0  0  0
   -2.5186  -12.6505  -18.1700 H   0  0  0  0  0  0  0  0  0  0  0  0
   -2.1363  -10.6718  -16.4207 C   0  0  0  0  0  0  0  0  0  0  0  0
   -3.1140   -9.7258  -16.7445 O   0  0  0  0  0  0  0  0  0  0  0  0
   -0.8923  -10.3332  -16.2524 N   0  0  0  0  0  0  0  0  0  0  0  0
   -2.9074   -8.7453  -16.8867 H   0  0  0  0  0  0  0  0  0  0  0  0
   -0.3591   -8.9783  -16.3492 C   0  0  0  0  0  0  0  0  0  0  0  0
    0.0964   -8.4970  -14.9709 C   0  0  0  0  0  0  0  0  0  0  0  0
   -0.9062   -7.5771  -14.3366 C   0  0  0  0  0  0  0  0  0  0  0  0
   -2.2142   -7.5246  -14.8244 O   0  0  0  0  0  0  0  0  0  0  0  0
   -0.5457   -6.8311  -13.3377 N   0  0  0  0  0  0  0  0  0  0  0  0
   -2.5169   -8.1146  -15.5888 H   0  0  0  0  0  0  0  0  0  0  0  0
   -1.4339   -5.8907  -12.6571 C   0  0  0  0  0  0  0  0  0  0  0  0
   -0.7502   -5.3038  -11.4236 C   0  0  0  0  0  0  0  0  0  0  0  0
   -1.3190   -6.1597   -9.9196 S   0  0  0  0  0  0  0  0  0  0  0  0
   -2.6361   -5.6739  -10.0480 H   0  0  0  0  0  0  0  0  0  0  0  0
 40 41  1  0  0  0
 41 42  1  0  0  0
 41 39  1  0  0  0
 41 43  1  0  0  0
 39 38  1  0  0  0
 38 34  1  0  0  0
 34 35  2  0  0  0
 34 36  1  0  0  0
 34 33  1  0  0  0
 36 37  1  0  0  0
 33  1  1  0  0  0
  1  2  2  0  0  0
  1  3  1  0  0  0
  1  5  1  0  0  0
  3  4  1  0  0  0
  5  6  1  0  0  0
  6  7  1  0  0  0
  7  8  1  0  0  0
  7 12  1  0  0  0
  8  9  1  0  0  0
  9 14  1  0  0  0
  9 10  1  0  0  0
 14 15  1  0  0  0
 14 23  1  0  0  0
 15 16  2  0  0  0
 16 17  1  0  0  0
 17 18  2  0  0  0
 17 23  1  0  0  0
 18 19  1  0  0  0
 18 20  1  0  0  0
 19 24  1  0  0  0
 19 25  1  0  0  0
 20 21  2  0  0  0
 21 22  1  0  0  0
 22 23  2  0  0  0
 10 11  1  0  0  0
 10 12  1  0  0  0
 11 13  1  0  0  0
 12 26  1  0  0  0
 26 27  1  0  0  0
 27 28  2  0  0  0
 27 29  1  0  0  0
 27 30  1  0  0  0
 29 31  1  0  0  0
 30 32  1  0  0  0
 43 44  1  0  0  0
 43 46  1  0  0  0
 44 45  1  0  0  0
 46 47  1  0  0  0
 46 48  2  0  0  0
 47 49  1  0  0  0
 48 50  1  0  0  0
 50 51  1  0  0  0
 51 52  1  0  0  0
 52 53  1  0  0  0
 52 54  2  0  0  0
 53 55  1  0  0  0
 54 56  1  0  0  0
 56 57  1  0  0  0
 57 58  1  0  0  0
 58 59  1  0  0  0
M  END
> <minimizedAffinity>
-7.66939

> <CNNscore>
0.6209989190

> <CNNaffinity>
6.3389425278

> <CNN_VS>
3.9364764690

> <CNNaffinity_variance>
0.5386183858

$$$$



 59 61  0  0  0  0  0  0  0  0999 V2000
   -3.5762   23.2987    2.5093 P   0  0  0  0  0  0  0  0  0  0  0  0
   -3.6060   24.3971    3.5506 O   0  0  0  0  0  0  0  0  0  0  0  0
   -1.9682   22.9396    2.1235 O   0  0  0  0  0  0  0  0  0  0  0  0
   -1.6581   23.7137    1.5908 H   0  0  0  0  0  0  0  0  0  0  0  0
   -4.3406   21.8825    3.0816 O   0  0  0  0  0  0  0  0  0  0  0  0
   -4.8589   21.1294    2.0060 C   0  0  0  0  0  0  0  0  0  0  0  0
   -6.4056   21.0788    2.0384 C   0  0  0  0  0  0  0  0  0  0  0  0
   -6.9450   22.1762    1.3276 O   0  0  0  0  0  0  0  0  0  0  0  0
   -7.6100   21.6797    0.1886 C   0  0  0  0  0  0  0  0  0  0  0  0
   -7.2393   20.2146    0.0067 C   0  0  0  0  0  0  0  0  0  0  0  0
   -8.2967   19.4906   -0.5666 O   0  0  0  0  0  0  0  0  0  0  0  0
   -6.9489   19.7806    1.4262 C   0  0  0  0  0  0  0  0  0  0  0  0
   -7.9286   18.5965   -0.7962 H   0  0  0  0  0  0  0  0  0  0  0  0
   -7.2390   22.4827   -0.9807 N   0  0  0  0  0  0  0  0  0  0  0  0
   -6.0776   22.4489   -1.6810 C   0  0  0  0  0  0  0  0  0  0  0  0
   -6.0104   23.3899   -2.6638 N   0  0  0  0  0  0  0  0  0  0  0  0
   -7.1892   24.0242   -2.5506 C   0  0  0  0  0  0  0  0  0  0  0  0
   -7.6980   25.0873   -3.2889 C   0  0  0  0  0  0  0  0  0  0  0  0
   -6.9471   25.7040   -4.3338 N   0  0  0  0  0  0  0  0  0  0  0  0
   -8.9468   25.5415   -2.9680 N   0  0  0  0  0  0  0  0  0  0  0  0
   -9.6707   24.9780   -1.9473 C   0  0  0  0  0  0  0  0  0  0  0  0
   -9.1580   23.9385   -1.2205 N   0  0  0  0  0  0  0  0  0  0  0  0
   -7.9238   23.4828   -1.5505 C   0  0  0  0  0  0  0  0  0  0  0  0
   -5.9378   25.4781   -4.4672 H   0  0  0  0  0  0  0  0  0  0  0  0
   -7.3782   26.4468   -4.9236 H   0  0  0  0  0  0  0  0  0  0  0  0
   -8.1613   19.4183    2.0671 O   0  0  0  0  0  0  0  0  0  0  0  0
   -7.9877   17.8890    2.8099 P   0  0  0  0  0  0  0  0  0  0  0  0
   -6.5302   17.4825    2.8423 O   0  0  0  0  0  0  0  0  0  0  0  0
   -8.5649   17.9767    4.3964 O   0  0  0  0  0  0  0  0  0  0  0  0
   -8.8818   16.7323    1.9580 O   0  0  0  0  0  0  0  0  0  0  0  0
   -9.3591   18.5628    4.3465 H   0  0  0  0  0  0  0  0  0  0  0  0
   -9.8023   17.0936    1.9301 H   0  0  0  0  0  0  0  0  0  0  0  0
   -4.3672   23.8184    1.0927 O   0  0  0  0  0  0  0  0  0  0  0  0
   -3.3644   24.9565    0.3109 P   0  0  0  0  0  0  0  0  0  0  0  0
   -4.1589   25.7858   -0.6800 O   0  0  0  0  0  0  0  0  0  0  0  0
   -2.6728   25.9892    1.4613 O   0  0  0  0  0  0  0  0  0  0  0  0
   -2.2039   25.3833    2.0899 H   0  0  0  0  0  0  0  0  0  0  0  0
   -2.1149   24.0920   -0.4833 O   0  0  0  0  0  0  0  0  0  0  0  0
   -1.7473   24.7278   -1.6963 C   0  0  0  0  0  0  0  0  0  0  0  0
    0.5918   23.9983   -2.3611 C   0  0  0  0  0  0  0  0  0  0  0  0
   -0.2393   25.1270   -1.6995 C   0  0  0  0  0  0  0  0  0  0  0  0
    0.2348   25.3020   -0.2381 C   0  0  0  0  0  0  0  0  0  0  0  0
   -0.0771   26.4683   -2.5011 C   0  0  0  0  0  0  0  0  0  0  0  0
    0.2154   26.1830   -3.8483 O   0  0  0  0  0  0  0  0  0  0  0  0
    0.6538   26.9871   -4.2299 H   0  0  0  0  0  0  0  0  0  0  0  0
   -1.2890   27.3734   -2.4417 C   0  0  0  0  0  0  0  0  0  0  0  0
   -2.1846   27.3742   -3.5158 O   0  0  0  0  0  0  0  0  0  0  0  0
   -1.4619   28.1484   -1.4122 N   0  0  0  0  0  0  0  0  0  0  0  0
   -2.9907   27.9845   -3.5617 H   0  0  0  0  0  0  0  0  0  0  0  0
   -2.5739   29.0740   -1.2216 C   0  0  0  0  0  0  0  0  0  0  0  0
   -2.9423   29.1488    0.2608 C   0  0  0  0  0  0  0  0  0  0  0  0
   -1.7372   29.3638    1.1299 C   0  0  0  0  0  0  0  0  0  0  0  0
   -1.0579   28.2679    1.6676 O   0  0  0  0  0  0  0  0  0  0  0  0
   -1.3374   30.5730    1.3792 N   0  0  0  0  0  0  0  0  0  0  0  0
   -1.3441   27.3184    1.4662 H   0  0  0  0  0  0  0  0  0  0  0  0
   -0.1885   30.8969    2.2228 C   0  0  0  0  0  0  0  0  0  0  0  0
   -0.5817   31.9050    3.3009 C   0  0  0  0  0  0  0  0  0  0  0  0
   -2.0707   31.3369    4.1831 S   0  0  0  0  0  0  0  0  0  0  0  0
   -2.8902   31.4683    3.0437 H   0  0  0  0  0  0  0  0  0  0  0  0
 40 41  1  0  0  0
 41 42  1  0  0  0
 41 39  1  0  0  0
 41 43  1  0  0  0
 39 38  1  0  0  0
 38 34  1  0  0  0
 34 35  2  0  0  0
 34 36  1  0  0  0
 34 33  1  0  0  0
 36 37  1  0  0  0
 33  1  1  0  0  0
  1  2  2  0  0  0
  1  3  1  0  0  0
  1  5  1  0  0  0
  3  4  1  0  0  0
  5  6  1  0  0  0
  6  7  1  0  0  0
  7  8  1  0  0  0
  7 12  1  0  0  0
  8  9  1  0  0  0
  9 14  1  0  0  0
  9 10  1  0  0  0
 14 15  1  0  0  0
 14 23  1  0  0  0
 15 16  2  0  0  0
 16 17  1  0  0  0
 17 18  2  0  0  0
 17 23  1  0  0  0
 18 19  1  0  0  0
 18 20  1  0  0  0
 19 24  1  0  0  0
 19 25  1  0  0  0
 20 21  2  0  0  0
 21 22  1  0  0  0
 22 23  2  0  0  0
 10 11  1  0  0  0
 10 12  1  0  0  0
 11 13  1  0  0  0
 12 26  1  0  0  0
 26 27  1  0  0  0
 27 28  2  0  0  0
 27 29  1  0  0  0
 27 30  1  0  0  0
 29 31  1  0  0  0
 30 32  1  0  0  0
 43 44  1  0  0  0
 43 46  1  0  0  0
 44 45  1  0  0  0
 46 47  1  0  0  0
 46 48  2  0  0  0
 47 49  1  0  0  0
 48 50  1  0  0  0
 50 51  1  0  0  0
 51 52  1  0  0  0
 52 53  1  0  0  0
 52 54  2  0  0  0
 53 55  1  0  0  0
 54 56  1  0  0  0
 56 57  1  0  0  0
 57 58  1  0  0  0
 58 59  1  0  0  0
M  END
> <minimizedAffinity>
-7.80844

> <CNNscore>
0.6076611876

> <CNNaffinity>
5.4320859909

> <CNN_VS>
3.3008677959

> <CNNaffinity_variance>
0.8107967377

$$$$



 59 61  0  0  0  0  0  0  0  0999 V2000
   -6.2583   22.7213    0.1718 P   0  0  0  0  0  0  0  0  0  0  0  0
   -7.6767   22.2642   -0.0941 O   0  0  0  0  0  0  0  0  0  0  0  0
   -5.1803   21.5231   -0.3439 O   0  0  0  0  0  0  0  0  0  0  0  0
   -5.2732   20.7972    0.3222 H   0  0  0  0  0  0  0  0  0  0  0  0
   -5.9113   24.1750   -0.6551 O   0  0  0  0  0  0  0  0  0  0  0  0
   -4.5599   24.5396   -0.4717 C   0  0  0  0  0  0  0  0  0  0  0  0
   -3.6774   24.0706   -1.6537 C   0  0  0  0  0  0  0  0  0  0  0  0
   -4.4860   23.5445   -2.6880 O   0  0  0  0  0  0  0  0  0  0  0  0
   -4.3799   24.3952   -3.8066 C   0  0  0  0  0  0  0  0  0  0  0  0
   -3.6922   25.6834   -3.3767 C   0  0  0  0  0  0  0  0  0  0  0  0
   -2.9327   26.2277   -4.4246 O   0  0  0  0  0  0  0  0  0  0  0  0
   -2.8303   25.2157   -2.2252 C   0  0  0  0  0  0  0  0  0  0  0  0
   -2.6502   27.1312   -4.1224 H   0  0  0  0  0  0  0  0  0  0  0  0
   -5.7162   24.6497   -4.3534 N   0  0  0  0  0  0  0  0  0  0  0  0
   -6.9103   24.5517   -3.7169 C   0  0  0  0  0  0  0  0  0  0  0  0
   -7.9787   24.7687   -4.5338 N   0  0  0  0  0  0  0  0  0  0  0  0
   -7.4013   25.0083   -5.7228 C   0  0  0  0  0  0  0  0  0  0  0  0
   -7.9874   25.2970   -6.9505 C   0  0  0  0  0  0  0  0  0  0  0  0
   -9.4041   25.3518   -7.1125 N   0  0  0  0  0  0  0  0  0  0  0  0
   -7.1566   25.5113   -8.0147 N   0  0  0  0  0  0  0  0  0  0  0  0
   -5.7928   25.4343   -7.8823 C   0  0  0  0  0  0  0  0  0  0  0  0
   -5.2257   25.1406   -6.6724 N   0  0  0  0  0  0  0  0  0  0  0  0
   -6.0532   24.9411   -5.6164 C   0  0  0  0  0  0  0  0  0  0  0  0
  -10.0386   25.0228   -6.3532 H   0  0  0  0  0  0  0  0  0  0  0  0
   -9.8186   25.6456   -8.0220 H   0  0  0  0  0  0  0  0  0  0  0  0
   -1.6071   24.7031   -2.7280 O   0  0  0  0  0  0  0  0  0  0  0  0
   -0.3064   25.2784   -1.7806 P   0  0  0  0  0  0  0  0  0  0  0  0
    0.1015   24.2378   -0.7602 O   0  0  0  0  0  0  0  0  0  0  0  0
    1.0119   25.5998   -2.7889 O   0  0  0  0  0  0  0  0  0  0  0  0
   -0.7592   26.7039   -0.9892 O   0  0  0  0  0  0  0  0  0  0  0  0
    0.6171   25.9826   -3.6101 H   0  0  0  0  0  0  0  0  0  0  0  0
   -1.0646   27.3082   -1.7105 H   0  0  0  0  0  0  0  0  0  0  0  0
   -6.0303   22.9688    1.8419 O   0  0  0  0  0  0  0  0  0  0  0  0
   -4.8178   21.8943    2.3780 P   0  0  0  0  0  0  0  0  0  0  0  0
   -3.5023   22.1701    1.6750 O   0  0  0  0  0  0  0  0  0  0  0  0
   -4.5967   22.0742    4.0473 O   0  0  0  0  0  0  0  0  0  0  0  0
   -5.4946   21.9164    4.4359 H   0  0  0  0  0  0  0  0  0  0  0  0
   -5.3562   20.2984    2.0569 O   0  0  0  0  0  0  0  0  0  0  0  0
   -4.2624   19.4004    1.9673 C   0  0  0  0  0  0  0  0  0  0  0  0
   -4.7040   17.4625    3.5468 C   0  0  0  0  0  0  0  0  0  0  0  0
   -4.7310   17.9157    2.0648 C   0  0  0  0  0  0  0  0  0  0  0  0
   -3.7555   17.0294    1.2562 C   0  0  0  0  0  0  0  0  0  0  0  0
   -6.1877   17.8103    1.4864 C   0  0  0  0  0  0  0  0  0  0  0  0
   -6.1764   18.1215    0.1135 O   0  0  0  0  0  0  0  0  0  0  0  0
   -7.0976   18.3956   -0.1327 H   0  0  0  0  0  0  0  0  0  0  0  0
   -6.8314   16.4536    1.6781 C   0  0  0  0  0  0  0  0  0  0  0  0
   -6.2543   15.3391    1.0610 O   0  0  0  0  0  0  0  0  0  0  0  0
   -7.9168   16.3520    2.3865 N   0  0  0  0  0  0  0  0  0  0  0  0
   -6.6553   14.4113    1.1111 H   0  0  0  0  0  0  0  0  0  0  0  0
   -8.6479   15.1169    2.6503 C   0  0  0  0  0  0  0  0  0  0  0  0
   -9.6016   14.8177    1.4928 C   0  0  0  0  0  0  0  0  0  0  0  0
   -9.1917   13.5925    0.7284 C   0  0  0  0  0  0  0  0  0  0  0  0
  -10.0917   12.9807   -0.1476 O   0  0  0  0  0  0  0  0  0  0  0  0
   -7.9994   13.1069    0.8923 N   0  0  0  0  0  0  0  0  0  0  0  0
  -11.0176   13.3584   -0.3025 H   0  0  0  0  0  0  0  0  0  0  0  0
   -7.5022   11.9125    0.2121 C   0  0  0  0  0  0  0  0  0  0  0  0
   -6.9854   10.8936    1.2261 C   0  0  0  0  0  0  0  0  0  0  0  0
   -5.3498   10.2724    0.7189 S   0  0  0  0  0  0  0  0  0  0  0  0
   -5.8629    9.6313   -0.4269 H   0  0  0  0  0  0  0  0  0  0  0  0
 40 41  1  0  0  0
 41 42  1  0  0  0
 41 39  1  0  0  0
 41 43  1  0  0  0
 39 38  1  0  0  0
 38 34  1  0  0  0
 34 35  2  0  0  0
 34 36  1  0  0  0
 34 33  1  0  0  0
 36 37  1  0  0  0
 33  1  1  0  0  0
  1  2  2  0  0  0
  1  3  1  0  0  0
  1  5  1  0  0  0
  3  4  1  0  0  0
  5  6  1  0  0  0
  6  7  1  0  0  0
  7  8  1  0  0  0
  7 12  1  0  0  0
  8  9  1  0  0  0
  9 14  1  0  0  0
  9 10  1  0  0  0
 14 15  1  0  0  0
 14 23  1  0  0  0
 15 16  2  0  0  0
 16 17  1  0  0  0
 17 18  2  0  0  0
 17 23  1  0  0  0
 18 19  1  0  0  0
 18 20  1  0  0  0
 19 24  1  0  0  0
 19 25  1  0  0  0
 20 21  2  0  0  0
 21 22  1  0  0  0
 22 23  2  0  0  0
 10 11  1  0  0  0
 10 12  1  0  0  0
 11 13  1  0  0  0
 12 26  1  0  0  0
 26 27  1  0  0  0
 27 28  2  0  0  0
 27 29  1  0  0  0
 27 30  1  0  0  0
 29 31  1  0  0  0
 30 32  1  0  0  0
 43 44  1  0  0  0
 43 46  1  0  0  0
 44 45  1  0  0  0
 46 47  1  0  0  0
 46 48  2  0  0  0
 47 49  1  0  0  0
 48 50  1  0  0  0
 50 51  1  0  0  0
 51 52  1  0  0  0
 52 53  1  0  0  0
 52 54  2  0  0  0
 53 55  1  0  0  0
 54 56  1  0  0  0
 56 57  1  0  0  0
 57 58  1  0  0  0
 58 59  1  0  0  0
M  END
> <minimizedAffinity>
-8.32001

> <CNNscore>
0.5117781758

> <CNNaffinity>
5.9763379097

> <CNN_VS>
3.0585594177

> <CNNaffinity_variance>
0.1023182124

$$$$



 59 61  0  0  0  0  0  0  0  0999 V2000
   -2.8631   24.2667    0.3445 P   0  0  0  0  0  0  0  0  0  0  0  0
   -2.7489   22.9700    1.1173 O   0  0  0  0  0  0  0  0  0  0  0  0
   -1.6058   24.3555   -0.7847 O   0  0  0  0  0  0  0  0  0  0  0  0
   -0.7944   24.5277   -0.2451 H   0  0  0  0  0  0  0  0  0  0  0  0
   -4.3570   24.3678   -0.4773 O   0  0  0  0  0  0  0  0  0  0  0  0
   -4.4213   23.4072   -1.5097 C   0  0  0  0  0  0  0  0  0  0  0  0
   -5.8574   22.8582   -1.6892 C   0  0  0  0  0  0  0  0  0  0  0  0
   -5.8905   21.4741   -1.4004 O   0  0  0  0  0  0  0  0  0  0  0  0
   -6.6707   21.2840   -0.2423 C   0  0  0  0  0  0  0  0  0  0  0  0
   -6.9178   22.6381    0.4077 C   0  0  0  0  0  0  0  0  0  0  0  0
   -8.1628   22.6707    1.0557 O   0  0  0  0  0  0  0  0  0  0  0  0
   -6.8625   23.5756   -0.7780 C   0  0  0  0  0  0  0  0  0  0  0  0
   -8.1809   23.5149    1.5798 H   0  0  0  0  0  0  0  0  0  0  0  0
   -5.9784   20.3644    0.6659 N   0  0  0  0  0  0  0  0  0  0  0  0
   -4.6647   20.0254    0.6676 C   0  0  0  0  0  0  0  0  0  0  0  0
   -4.3530   19.0714    1.5888 N   0  0  0  0  0  0  0  0  0  0  0  0
   -5.5372   18.8208    2.1713 C   0  0  0  0  0  0  0  0  0  0  0  0
   -5.8519   17.9306    3.1923 C   0  0  0  0  0  0  0  0  0  0  0  0
   -4.8669   17.0804    3.7780 N   0  0  0  0  0  0  0  0  0  0  0  0
   -7.1522   17.8804    3.6111 N   0  0  0  0  0  0  0  0  0  0  0  0
   -8.1172   18.6708    3.0390 C   0  0  0  0  0  0  0  0  0  0  0  0
   -7.7998   19.5370    2.0287 N   0  0  0  0  0  0  0  0  0  0  0  0
   -6.5061   19.5927    1.6250 C   0  0  0  0  0  0  0  0  0  0  0  0
   -3.9202   16.9909    3.3500 H   0  0  0  0  0  0  0  0  0  0  0  0
   -5.1092   16.4781    4.5929 H   0  0  0  0  0  0  0  0  0  0  0  0
   -8.1336   23.6190   -1.4060 O   0  0  0  0  0  0  0  0  0  0  0  0
   -8.1758   24.8988   -2.5376 P   0  0  0  0  0  0  0  0  0  0  0  0
   -9.5404   25.5534   -2.5406 O   0  0  0  0  0  0  0  0  0  0  0  0
   -7.0179   26.0536   -2.1091 O   0  0  0  0  0  0  0  0  0  0  0  0
   -7.8245   24.3092   -4.0843 O   0  0  0  0  0  0  0  0  0  0  0  0
   -6.2454   25.5307   -1.7826 H   0  0  0  0  0  0  0  0  0  0  0  0
   -6.9536   23.8498   -3.9886 H   0  0  0  0  0  0  0  0  0  0  0  0
   -2.7275   25.5913    1.4074 O   0  0  0  0  0  0  0  0  0  0  0  0
   -1.9381   26.8580    0.5802 P   0  0  0  0  0  0  0  0  0  0  0  0
   -2.5940   27.1176   -0.7627 O   0  0  0  0  0  0  0  0  0  0  0  0
   -2.0080   28.2729    1.5082 O   0  0  0  0  0  0  0  0  0  0  0  0
   -1.5983   28.0227    2.3751 H   0  0  0  0  0  0  0  0  0  0  0  0
   -0.2967   26.4057    0.3782 O   0  0  0  0  0  0  0  0  0  0  0  0
    0.5728   27.4043    0.8857 C   0  0  0  0  0  0  0  0  0  0  0  0
    1.7775   26.7901   -1.2630 C   0  0  0  0  0  0  0  0  0  0  0  0
    1.5698   27.9037   -0.2051 C   0  0  0  0  0  0  0  0  0  0  0  0
    2.9290   28.2134    0.4639 C   0  0  0  0  0  0  0  0  0  0  0  0
    0.9742   29.1929   -0.8769 C   0  0  0  0  0  0  0  0  0  0  0  0
   -0.3643   28.9599   -1.2458 O   0  0  0  0  0  0  0  0  0  0  0  0
   -0.5906   29.6140   -1.9567 H   0  0  0  0  0  0  0  0  0  0  0  0
    1.0362   30.4285   -0.0044 C   0  0  0  0  0  0  0  0  0  0  0  0
    1.9492   31.4376   -0.3267 O   0  0  0  0  0  0  0  0  0  0  0  0
    0.2635   30.5185    1.0373 N   0  0  0  0  0  0  0  0  0  0  0  0
    2.0740   32.2692    0.2364 H   0  0  0  0  0  0  0  0  0  0  0  0
    0.2188   31.6410    1.9687 C   0  0  0  0  0  0  0  0  0  0  0  0
    1.1899   31.3987    3.1250 C   0  0  0  0  0  0  0  0  0  0  0  0
    1.1182   29.9881    3.6337 C   0  0  0  0  0  0  0  0  0  0  0  0
   -0.1077   29.3192    3.6708 O   0  0  0  0  0  0  0  0  0  0  0  0
    2.2012   29.4004    4.0410 N   0  0  0  0  0  0  0  0  0  0  0  0
   -0.9578   29.7556    3.3377 H   0  0  0  0  0  0  0  0  0  0  0  0
    2.2435   28.0380    4.5686 C   0  0  0  0  0  0  0  0  0  0  0  0
    3.6882   27.5644    4.7165 C   0  0  0  0  0  0  0  0  0  0  0  0
    3.8408   25.8285    4.1859 S   0  0  0  0  0  0  0  0  0  0  0  0
    3.0411   25.3537    5.2453 H   0  0  0  0  0  0  0  0  0  0  0  0
 40 41  1  0  0  0
 41 42  1  0  0  0
 41 39  1  0  0  0
 41 43  1  0  0  0
 39 38  1  0  0  0
 38 34  1  0  0  0
 34 35  2  0  0  0
 34 36  1  0  0  0
 34 33  1  0  0  0
 36 37  1  0  0  0
 33  1  1  0  0  0
  1  2  2  0  0  0
  1  3  1  0  0  0
  1  5  1  0  0  0
  3  4  1  0  0  0
  5  6  1  0  0  0
  6  7  1  0  0  0
  7  8  1  0  0  0
  7 12  1  0  0  0
  8  9  1  0  0  0
  9 14  1  0  0  0
  9 10  1  0  0  0
 14 15  1  0  0  0
 14 23  1  0  0  0
 15 16  2  0  0  0
 16 17  1  0  0  0
 17 18  2  0  0  0
 17 23  1  0  0  0
 18 19  1  0  0  0
 18 20  1  0  0  0
 19 24  1  0  0  0
 19 25  1  0  0  0
 20 21  2  0  0  0
 21 22  1  0  0  0
 22 23  2  0  0  0
 10 11  1  0  0  0
 10 12  1  0  0  0
 11 13  1  0  0  0
 12 26  1  0  0  0
 26 27  1  0  0  0
 27 28  2  0  0  0
 27 29  1  0  0  0
 27 30  1  0  0  0
 29 31  1  0  0  0
 30 32  1  0  0  0
 43 44  1  0  0  0
 43 46  1  0  0  0
 44 45  1  0  0  0
 46 47  1  0  0  0
 46 48  2  0  0  0
 47 49  1  0  0  0
 48 50  1  0  0  0
 50 51  1  0  0  0
 51 52  1  0  0  0
 52 53  1  0  0  0
 52 54  2  0  0  0
 53 55  1  0  0  0
 54 56  1  0  0  0
 56 57  1  0  0  0
 57 58  1  0  0  0
 58 59  1  0  0  0
M  END
> <minimizedAffinity>
-6.82962

> <CNNscore>
0.4910139441

> <CNNaffinity>
5.2430119514

> <CNN_VS>
2.5743920803

> <CNNaffinity_variance>
0.1503488719

$$$$



 59 61  0  0  0  0  0  0  0  0999 V2000
   -6.6416  -16.7599  -15.3905 P   0  0  0  0  0  0  0  0  0  0  0  0
   -7.1060  -15.6616  -16.3231 O   0  0  0  0  0  0  0  0  0  0  0  0
   -6.4382  -16.1225  -13.8361 O   0  0  0  0  0  0  0  0  0  0  0  0
   -5.6212  -15.5676  -13.8964 H   0  0  0  0  0  0  0  0  0  0  0  0
   -7.7749  -18.0361  -15.3245 O   0  0  0  0  0  0  0  0  0  0  0  0
   -8.3457  -18.1266  -14.0367 C   0  0  0  0  0  0  0  0  0  0  0  0
   -9.8798  -17.9247  -14.0774 C   0  0  0  0  0  0  0  0  0  0  0  0
  -10.2083  -16.8518  -14.9384 O   0  0  0  0  0  0  0  0  0  0  0  0
  -10.9104  -17.3727  -16.0437 C   0  0  0  0  0  0  0  0  0  0  0  0
  -10.7809  -18.8893  -16.0337 C   0  0  0  0  0  0  0  0  0  0  0  0
  -11.9249  -19.5002  -16.5713 O   0  0  0  0  0  0  0  0  0  0  0  0
  -10.6104  -19.1849  -14.5602 C   0  0  0  0  0  0  0  0  0  0  0  0
  -11.7024  -20.4631  -16.6756 H   0  0  0  0  0  0  0  0  0  0  0  0
  -10.3757  -16.7905  -17.2786 N   0  0  0  0  0  0  0  0  0  0  0  0
   -9.5494  -17.3709  -18.1846 C   0  0  0  0  0  0  0  0  0  0  0  0
   -9.1618  -16.5277  -19.1820 N   0  0  0  0  0  0  0  0  0  0  0  0
   -9.7839  -15.3809  -18.8617 C   0  0  0  0  0  0  0  0  0  0  0  0
   -9.7677  -14.1522  -19.5129 C   0  0  0  0  0  0  0  0  0  0  0  0
   -8.9955  -13.9375  -20.6934 N   0  0  0  0  0  0  0  0  0  0  0  0
  -10.5080  -13.1384  -18.9718 N   0  0  0  0  0  0  0  0  0  0  0  0
  -11.2337  -13.3201  -17.8212 C   0  0  0  0  0  0  0  0  0  0  0  0
  -11.2361  -14.5300  -17.1826 N   0  0  0  0  0  0  0  0  0  0  0  0
  -10.5102  -15.5366  -17.7298 C   0  0  0  0  0  0  0  0  0  0  0  0
   -8.3006  -14.6477  -21.0100 H   0  0  0  0  0  0  0  0  0  0  0  0
   -9.0595  -13.0331  -21.2067 H   0  0  0  0  0  0  0  0  0  0  0  0
  -11.8853  -19.2665  -13.9438 O   0  0  0  0  0  0  0  0  0  0  0  0
  -12.1432  -20.8506  -13.3569 P   0  0  0  0  0  0  0  0  0  0  0  0
  -10.8497  -21.4331  -12.8296 O   0  0  0  0  0  0  0  0  0  0  0  0
  -13.2703  -20.7967  -12.0980 O   0  0  0  0  0  0  0  0  0  0  0  0
  -12.7446  -21.8316  -14.5975 O   0  0  0  0  0  0  0  0  0  0  0  0
  -13.9306  -20.1161  -12.3764 H   0  0  0  0  0  0  0  0  0  0  0  0
  -13.5495  -21.3596  -14.9262 H   0  0  0  0  0  0  0  0  0  0  0  0
   -5.1449  -17.3782  -15.9196 O   0  0  0  0  0  0  0  0  0  0  0  0
   -4.1174  -16.0602  -16.2650 P   0  0  0  0  0  0  0  0  0  0  0  0
   -2.6642  -16.4949  -16.2697 O   0  0  0  0  0  0  0  0  0  0  0  0
   -4.5044  -15.4213  -17.7849 O   0  0  0  0  0  0  0  0  0  0  0  0
   -5.4668  -15.1937  -17.7218 H   0  0  0  0  0  0  0  0  0  0  0  0
   -4.3895  -14.8600  -15.0713 O   0  0  0  0  0  0  0  0  0  0  0  0
   -3.2029  -14.1322  -14.8012 C   0  0  0  0  0  0  0  0  0  0  0  0
   -4.0664  -13.3911  -12.5318 C   0  0  0  0  0  0  0  0  0  0  0  0
   -3.4815  -12.9033  -13.8817 C   0  0  0  0  0  0  0  0  0  0  0  0
   -4.5194  -11.9879  -14.5713 C   0  0  0  0  0  0  0  0  0  0  0  0
   -2.1311  -12.1354  -13.6477 C   0  0  0  0  0  0  0  0  0  0  0  0
   -1.2013  -12.9900  -13.0258 O   0  0  0  0  0  0  0  0  0  0  0  0
   -0.5280  -12.4149  -12.5782 H   0  0  0  0  0  0  0  0  0  0  0  0
   -1.5142  -11.5726  -14.9105 C   0  0  0  0  0  0  0  0  0  0  0  0
   -0.4995  -12.2950  -15.5462 O   0  0  0  0  0  0  0  0  0  0  0  0
   -1.9171  -10.4231  -15.3649 N   0  0  0  0  0  0  0  0  0  0  0  0
   -0.0141  -11.9582  -16.3680 H   0  0  0  0  0  0  0  0  0  0  0  0
   -1.4116   -9.7567  -16.5607 C   0  0  0  0  0  0  0  0  0  0  0  0
   -1.4992  -10.7007  -17.7607 C   0  0  0  0  0  0  0  0  0  0  0  0
   -2.8003  -10.5571  -18.4957 C   0  0  0  0  0  0  0  0  0  0  0  0
   -3.8825   -9.9192  -17.8844 O   0  0  0  0  0  0  0  0  0  0  0  0
   -2.9105  -11.0334  -19.6979 N   0  0  0  0  0  0  0  0  0  0  0  0
   -3.8069   -9.5241  -16.9559 H   0  0  0  0  0  0  0  0  0  0  0  0
   -4.1325  -10.9627  -20.4967 C   0  0  0  0  0  0  0  0  0  0  0  0
   -3.8201  -11.1832  -21.9757 C   0  0  0  0  0  0  0  0  0  0  0  0
   -3.3424  -12.9166  -22.2681 S   0  0  0  0  0  0  0  0  0  0  0  0
   -2.1582  -12.7986  -21.5124 H   0  0  0  0  0  0  0  0  0  0  0  0
 40 41  1  0  0  0
 41 42  1  0  0  0
 41 39  1  0  0  0
 41 43  1  0  0  0
 39 38  1  0  0  0
 38 34  1  0  0  0
 34 35  2  0  0  0
 34 36  1  0  0  0
 34 33  1  0  0  0
 36 37  1  0  0  0
 33  1  1  0  0  0
  1  2  2  0  0  0
  1  3  1  0  0  0
  1  5  1  0  0  0
  3  4  1  0  0  0
  5  6  1  0  0  0
  6  7  1  0  0  0
  7  8  1  0  0  0
  7 12  1  0  0  0
  8  9  1  0  0  0
  9 14  1  0  0  0
  9 10  1  0  0  0
 14 15  1  0  0  0
 14 23  1  0  0  0
 15 16  2  0  0  0
 16 17  1  0  0  0
 17 18  2  0  0  0
 17 23  1  0  0  0
 18 19  1  0  0  0
 18 20  1  0  0  0
 19 24  1  0  0  0
 19 25  1  0  0  0
 20 21  2  0  0  0
 21 22  1  0  0  0
 22 23  2  0  0  0
 10 11  1  0  0  0
 10 12  1  0  0  0
 11 13  1  0  0  0
 12 26  1  0  0  0
 26 27  1  0  0  0
 27 28  2  0  0  0
 27 29  1  0  0  0
 27 30  1  0  0  0
 29 31  1  0  0  0
 30 32  1  0  0  0
 43 44  1  0  0  0
 43 46  1  0  0  0
 44 45  1  0  0  0
 46 47  1  0  0  0
 46 48  2  0  0  0
 47 49  1  0  0  0
 48 50  1  0  0  0
 50 51  1  0  0  0
 51 52  1  0  0  0
 52 53  1  0  0  0
 52 54  2  0  0  0
 53 55  1  0  0  0
 54 56  1  0  0  0
 56 57  1  0  0  0
 57 58  1  0  0  0
 58 59  1  0  0  0
M  END
> <minimizedAffinity>
-7.88476

> <CNNscore>
0.4807363451

> <CNNaffinity>
5.6489639282

> <CNN_VS>
2.7156622410

> <CNNaffinity_variance>
0.1356699169

$$$$



 59 61  0  0  0  0  0  0  0  0999 V2000
   -6.8255  -17.0494  -15.0819 P   0  0  0  0  0  0  0  0  0  0  0  0
   -7.2894  -15.6309  -15.3354 O   0  0  0  0  0  0  0  0  0  0  0  0
   -7.5758  -17.6401  -13.6848 O   0  0  0  0  0  0  0  0  0  0  0  0
   -7.1345  -17.1608  -12.9401 H   0  0  0  0  0  0  0  0  0  0  0  0
   -7.2117  -18.0709  -16.3951 O   0  0  0  0  0  0  0  0  0  0  0  0
   -8.3314  -18.8733  -16.0868 C   0  0  0  0  0  0  0  0  0  0  0  0
   -9.3732  -18.8627  -17.2316 C   0  0  0  0  0  0  0  0  0  0  0  0
   -9.2729  -20.0498  -17.9939 O   0  0  0  0  0  0  0  0  0  0  0  0
  -10.4569  -20.7921  -17.8117 C   0  0  0  0  0  0  0  0  0  0  0  0
  -11.2385  -20.1879  -16.6535 C   0  0  0  0  0  0  0  0  0  0  0  0
  -12.6217  -20.3389  -16.8407 O   0  0  0  0  0  0  0  0  0  0  0  0
  -10.8073  -18.7388  -16.6995 C   0  0  0  0  0  0  0  0  0  0  0  0
  -13.0487  -20.0680  -15.9853 H   0  0  0  0  0  0  0  0  0  0  0  0
  -10.1179  -22.1967  -17.5634 N   0  0  0  0  0  0  0  0  0  0  0  0
   -9.9956  -22.8263  -16.3679 C   0  0  0  0  0  0  0  0  0  0  0  0
   -9.5792  -24.1189  -16.4768 N   0  0  0  0  0  0  0  0  0  0  0  0
   -9.4419  -24.2773  -17.8037 C   0  0  0  0  0  0  0  0  0  0  0  0
   -9.0394  -25.3956  -18.5258 C   0  0  0  0  0  0  0  0  0  0  0  0
   -8.6647  -26.6118  -17.8804 N   0  0  0  0  0  0  0  0  0  0  0  0
   -8.9953  -25.2884  -19.8878 N   0  0  0  0  0  0  0  0  0  0  0  0
   -9.3252  -24.1173  -20.5227 C   0  0  0  0  0  0  0  0  0  0  0  0
   -9.7112  -23.0195  -19.8032 N   0  0  0  0  0  0  0  0  0  0  0  0
   -9.7657  -23.1341  -18.4528 C   0  0  0  0  0  0  0  0  0  0  0  0
   -8.5315  -26.6454  -16.8467 H   0  0  0  0  0  0  0  0  0  0  0  0
   -8.4413  -27.4592  -18.4439 H   0  0  0  0  0  0  0  0  0  0  0  0
  -11.6080  -18.0369  -17.6365 O   0  0  0  0  0  0  0  0  0  0  0  0
  -11.4141  -16.3534  -17.4158 P   0  0  0  0  0  0  0  0  0  0  0  0
  -10.2794  -15.8377  -18.2744 O   0  0  0  0  0  0  0  0  0  0  0  0
  -12.8412  -15.5687  -17.8691 O   0  0  0  0  0  0  0  0  0  0  0  0
  -11.0920  -16.0211  -15.7882 O   0  0  0  0  0  0  0  0  0  0  0  0
  -13.5679  -16.1621  -17.5583 H   0  0  0  0  0  0  0  0  0  0  0  0
  -11.8409  -16.4354  -15.2920 H   0  0  0  0  0  0  0  0  0  0  0  0
   -5.1392  -17.0755  -14.8402 O   0  0  0  0  0  0  0  0  0  0  0  0
   -4.4259  -15.9966  -15.9533 P   0  0  0  0  0  0  0  0  0  0  0  0
   -2.9787  -16.3684  -16.2144 O   0  0  0  0  0  0  0  0  0  0  0  0
   -5.2777  -16.0441  -17.4163 O   0  0  0  0  0  0  0  0  0  0  0  0
   -6.2123  -15.8281  -17.1675 H   0  0  0  0  0  0  0  0  0  0  0  0
   -4.5389  -14.4176  -15.2948 O   0  0  0  0  0  0  0  0  0  0  0  0
   -3.4175  -14.1252  -14.4777 C   0  0  0  0  0  0  0  0  0  0  0  0
   -2.6932  -12.0411  -13.2217 C   0  0  0  0  0  0  0  0  0  0  0  0
   -2.9742  -12.6368  -14.6247 C   0  0  0  0  0  0  0  0  0  0  0  0
   -4.1211  -11.8363  -15.2840 C   0  0  0  0  0  0  0  0  0  0  0  0
   -1.6784  -12.5845  -15.5113 C   0  0  0  0  0  0  0  0  0  0  0  0
   -1.7061  -13.6302  -16.4535 O   0  0  0  0  0  0  0  0  0  0  0  0
   -0.7693  -13.7953  -16.7359 H   0  0  0  0  0  0  0  0  0  0  0  0
   -1.4808  -11.2718  -16.2389 C   0  0  0  0  0  0  0  0  0  0  0  0
   -1.8094  -11.1958  -17.5961 O   0  0  0  0  0  0  0  0  0  0  0  0
   -0.9880  -10.2518  -15.6009 N   0  0  0  0  0  0  0  0  0  0  0  0
   -1.6625  -10.3640  -18.1536 H   0  0  0  0  0  0  0  0  0  0  0  0
   -0.7369   -8.9322  -16.1711 C   0  0  0  0  0  0  0  0  0  0  0  0
   -0.0291   -8.0463  -15.1449 C   0  0  0  0  0  0  0  0  0  0  0  0
   -0.9740   -7.5351  -14.0962 C   0  0  0  0  0  0  0  0  0  0  0  0
   -2.2774   -8.0329  -14.0264 O   0  0  0  0  0  0  0  0  0  0  0  0
   -0.5707   -6.6267  -13.2617 N   0  0  0  0  0  0  0  0  0  0  0  0
   -2.6011   -8.7559  -14.6560 H   0  0  0  0  0  0  0  0  0  0  0  0
   -1.4097   -6.0486  -12.2138 C   0  0  0  0  0  0  0  0  0  0  0  0
   -0.5760   -5.7285  -10.9745 C   0  0  0  0  0  0  0  0  0  0  0  0
   -1.5172   -6.1153   -9.4636 S   0  0  0  0  0  0  0  0  0  0  0  0
   -2.4712   -5.1063   -9.7068 H   0  0  0  0  0  0  0  0  0  0  0  0
 40 41  1  0  0  0
 41 42  1  0  0  0
 41 39  1  0  0  0
 41 43  1  0  0  0
 39 38  1  0  0  0
 38 34  1  0  0  0
 34 35  2  0  0  0
 34 36  1  0  0  0
 34 33  1  0  0  0
 36 37  1  0  0  0
 33  1  1  0  0  0
  1  2  2  0  0  0
  1  3  1  0  0  0
  1  5  1  0  0  0
  3  4  1  0  0  0
  5  6  1  0  0  0
  6  7  1  0  0  0
  7  8  1  0  0  0
  7 12  1  0  0  0
  8  9  1  0  0  0
  9 14  1  0  0  0
  9 10  1  0  0  0
 14 15  1  0  0  0
 14 23  1  0  0  0
 15 16  2  0  0  0
 16 17  1  0  0  0
 17 18  2  0  0  0
 17 23  1  0  0  0
 18 19  1  0  0  0
 18 20  1  0  0  0
 19 24  1  0  0  0
 19 25  1  0  0  0
 20 21  2  0  0  0
 21 22  1  0  0  0
 22 23  2  0  0  0
 10 11  1  0  0  0
 10 12  1  0  0  0
 11 13  1  0  0  0
 12 26  1  0  0  0
 26 27  1  0  0  0
 27 28  2  0  0  0
 27 29  1  0  0  0
 27 30  1  0  0  0
 29 31  1  0  0  0
 30 32  1  0  0  0
 43 44  1  0  0  0
 43 46  1  0  0  0
 44 45  1  0  0  0
 46 47  1  0  0  0
 46 48  2  0  0  0
 47 49  1  0  0  0
 48 50  1  0  0  0
 50 51  1  0  0  0
 51 52  1  0  0  0
 52 53  1  0  0  0
 52 54  2  0  0  0
 53 55  1  0  0  0
 54 56  1  0  0  0
 56 57  1  0  0  0
 57 58  1  0  0  0
 58 59  1  0  0  0
M  END
> <minimizedAffinity>
-7.75756

> <CNNscore>
0.4545536637

> <CNNaffinity>
5.6670746803

> <CNN_VS>
2.5759894848

> <CNNaffinity_variance>
0.5458416343

$$$$



 59 61  0  0  0  0  0  0  0  0999 V2000
   -9.7583   23.0731    0.6018 P   0  0  0  0  0  0  0  0  0  0  0  0
  -10.0584   24.1466    1.6262 O   0  0  0  0  0  0  0  0  0  0  0  0
  -10.0622   23.6807   -0.9480 O   0  0  0  0  0  0  0  0  0  0  0  0
  -11.0485   23.7309   -1.0099 H   0  0  0  0  0  0  0  0  0  0  0  0
   -8.1287   22.5696    0.6923 O   0  0  0  0  0  0  0  0  0  0  0  0
   -8.0342   21.3035    1.3092 C   0  0  0  0  0  0  0  0  0  0  0  0
   -6.8572   21.2445    2.3128 C   0  0  0  0  0  0  0  0  0  0  0  0
   -6.7410   19.9426    2.8530 O   0  0  0  0  0  0  0  0  0  0  0  0
   -5.5249   19.3872    2.4074 C   0  0  0  0  0  0  0  0  0  0  0  0
   -4.9643   20.2662    1.2981 C   0  0  0  0  0  0  0  0  0  0  0  0
   -3.5604   20.2508    1.2985 O   0  0  0  0  0  0  0  0  0  0  0  0
   -5.5241   21.6253    1.6547 C   0  0  0  0  0  0  0  0  0  0  0  0
   -3.2776   20.7105    0.4642 H   0  0  0  0  0  0  0  0  0  0  0  0
   -5.7559   18.0144    1.9476 N   0  0  0  0  0  0  0  0  0  0  0  0
   -4.8313   17.0607    1.6714 C   0  0  0  0  0  0  0  0  0  0  0  0
   -5.3701   15.9118    1.1756 N   0  0  0  0  0  0  0  0  0  0  0  0
   -6.6849   16.1857    1.1498 C   0  0  0  0  0  0  0  0  0  0  0  0
   -7.7480   15.3900    0.7364 C   0  0  0  0  0  0  0  0  0  0  0  0
   -7.5459   14.0760    0.2182 N   0  0  0  0  0  0  0  0  0  0  0  0
   -9.0061   15.9170    0.8253 N   0  0  0  0  0  0  0  0  0  0  0  0
   -9.2154   17.1895    1.2949 C   0  0  0  0  0  0  0  0  0  0  0  0
   -8.1624   17.9682    1.6905 N   0  0  0  0  0  0  0  0  0  0  0  0
   -6.9169   17.4368    1.6125 C   0  0  0  0  0  0  0  0  0  0  0  0
   -6.5867   13.7373   -0.0113 H   0  0  0  0  0  0  0  0  0  0  0  0
   -8.3616   13.4702   -0.0124 H   0  0  0  0  0  0  0  0  0  0  0  0
   -4.6792   22.2493    2.6079 O   0  0  0  0  0  0  0  0  0  0  0  0
   -3.5844   23.2938    1.8137 P   0  0  0  0  0  0  0  0  0  0  0  0
   -2.2130   22.6582    1.7366 O   0  0  0  0  0  0  0  0  0  0  0  0
   -4.1393   23.5857    0.2437 O   0  0  0  0  0  0  0  0  0  0  0  0
   -3.4844   24.7625    2.6481 O   0  0  0  0  0  0  0  0  0  0  0  0
   -5.1215   23.6547    0.3295 H   0  0  0  0  0  0  0  0  0  0  0  0
   -4.4179   25.0843    2.7074 H   0  0  0  0  0  0  0  0  0  0  0  0
  -10.7672   21.7247    0.8596 O   0  0  0  0  0  0  0  0  0  0  0  0
  -12.3717   22.1861    0.5063 P   0  0  0  0  0  0  0  0  0  0  0  0
  -12.5305   22.5021   -0.9688 O   0  0  0  0  0  0  0  0  0  0  0  0
  -13.4281   20.9271    0.9150 O   0  0  0  0  0  0  0  0  0  0  0  0
  -13.2468   20.7511    1.8733 H   0  0  0  0  0  0  0  0  0  0  0  0
  -12.7433   23.5577    1.4656 O   0  0  0  0  0  0  0  0  0  0  0  0
  -13.3833   24.5605    0.6940 C   0  0  0  0  0  0  0  0  0  0  0  0
  -14.8975   24.6208    2.7309 C   0  0  0  0  0  0  0  0  0  0  0  0
  -14.2998   25.4638    1.5757 C   0  0  0  0  0  0  0  0  0  0  0  0
  -15.4572   26.0038    0.7041 C   0  0  0  0  0  0  0  0  0  0  0  0
  -13.4376   26.6451    2.1493 C   0  0  0  0  0  0  0  0  0  0  0  0
  -14.2320   27.8021    2.2590 O   0  0  0  0  0  0  0  0  0  0  0  0
  -13.6168   28.5805    2.2688 H   0  0  0  0  0  0  0  0  0  0  0  0
  -12.8062   26.3525    3.4937 C   0  0  0  0  0  0  0  0  0  0  0  0
  -11.9959   25.2205    3.6273 O   0  0  0  0  0  0  0  0  0  0  0  0
  -13.0471   27.1385    4.5010 N   0  0  0  0  0  0  0  0  0  0  0  0
  -11.5781   24.9415    4.5058 H   0  0  0  0  0  0  0  0  0  0  0  0
  -12.5162   26.9782    5.8508 C   0  0  0  0  0  0  0  0  0  0  0  0
  -11.1333   27.6240    5.9479 C   0  0  0  0  0  0  0  0  0  0  0  0
  -11.2175   29.1177    6.0724 C   0  0  0  0  0  0  0  0  0  0  0  0
  -11.5863   29.8919    4.9696 O   0  0  0  0  0  0  0  0  0  0  0  0
  -10.9409   29.6802    7.2087 N   0  0  0  0  0  0  0  0  0  0  0  0
  -11.8252   29.4677    4.0825 H   0  0  0  0  0  0  0  0  0  0  0  0
  -10.9756   31.1236    7.4366 C   0  0  0  0  0  0  0  0  0  0  0  0
  -11.1950   31.4279    8.9174 C   0  0  0  0  0  0  0  0  0  0  0  0
  -12.3752   30.2417    9.6372 S   0  0  0  0  0  0  0  0  0  0  0  0
  -13.4487   30.7185    8.8577 H   0  0  0  0  0  0  0  0  0  0  0  0
 40 41  1  0  0  0
 41 42  1  0  0  0
 41 39  1  0  0  0
 41 43  1  0  0  0
 39 38  1  0  0  0
 38 34  1  0  0  0
 34 35  2  0  0  0
 34 36  1  0  0  0
 34 33  1  0  0  0
 36 37  1  0  0  0
 33  1  1  0  0  0
  1  2  2  0  0  0
  1  3  1  0  0  0
  1  5  1  0  0  0
  3  4  1  0  0  0
  5  6  1  0  0  0
  6  7  1  0  0  0
  7  8  1  0  0  0
  7 12  1  0  0  0
  8  9  1  0  0  0
  9 14  1  0  0  0
  9 10  1  0  0  0
 14 15  1  0  0  0
 14 23  1  0  0  0
 15 16  2  0  0  0
 16 17  1  0  0  0
 17 18  2  0  0  0
 17 23  1  0  0  0
 18 19  1  0  0  0
 18 20  1  0  0  0
 19 24  1  0  0  0
 19 25  1  0  0  0
 20 21  2  0  0  0
 21 22  1  0  0  0
 22 23  2  0  0  0
 10 11  1  0  0  0
 10 12  1  0  0  0
 11 13  1  0  0  0
 12 26  1  0  0  0
 26 27  1  0  0  0
 27 28  2  0  0  0
 27 29  1  0  0  0
 27 30  1  0  0  0
 29 31  1  0  0  0
 30 32  1  0  0  0
 43 44  1  0  0  0
 43 46  1  0  0  0
 44 45  1  0  0  0
 46 47  1  0  0  0
 46 48  2  0  0  0
 47 49  1  0  0  0
 48 50  1  0  0  0
 50 51  1  0  0  0
 51 52  1  0  0  0
 52 53  1  0  0  0
 52 54  2  0  0  0
 53 55  1  0  0  0
 54 56  1  0  0  0
 56 57  1  0  0  0
 57 58  1  0  0  0
 58 59  1  0  0  0
M  END
> <minimizedAffinity>
-7.82527

> <CNNscore>
0.4508829713

> <CNNaffinity>
5.2883539200

> <CNN_VS>
2.3844287395

> <CNNaffinity_variance>
0.3267906308

$$$$
